MODPATH_PATHLINE_FILE 6 0                                                       
 2   0.912600000000000E+04
END HEADER
         1     1     0     2   0.000000000000000E+00   0.500000000000000E+03   0.521875000000000E+03   0.500000000000000E+01    1   20   21  1  0.0000000E+00   0.8750000E+00   0.5000000E+00     1
         1     1    -1     2   0.000000000000000E+00   0.500000000000000E+03   0.521875000000000E+03   0.500000000000000E+01    1   20   20  1  0.1000000E+01   0.8750000E+00   0.5000000E+00     1
         1     1    -1     2   0.441040358617726E+02   0.482619740257138E+03   0.525000000000000E+03   0.500000000000000E+01    1   19   20  1  0.3047896E+00   0.0000000E+00   0.5000000E+00     1
         1     1    -1     2   0.763949340373026E+02   0.475000000000000E+03   0.527633151116220E+03   0.500000000000000E+01    1   19   19  1  0.1000000E+01   0.1053260E+00   0.5000000E+00     1
         1     1    -1     2   0.186331660335101E+03   0.450000000000000E+03   0.530975856540509E+03   0.500000000000000E+01    1   19   18  1  0.1000000E+01   0.2390343E+00   0.5000000E+00     1
         1     1    -1     2   0.304213917393967E+03   0.425000000000000E+03   0.532800067906383E+03   0.500000000000000E+01    1   19   17  1  0.1000000E+01   0.3120027E+00   0.5000000E+00     1
         1     1    -1     2   0.428850268166176E+03   0.400000000000000E+03   0.533950549311338E+03   0.500000000000000E+01    1   19   16  1  0.1000000E+01   0.3580220E+00   0.5000000E+00     1
         1     1    -1     2   0.558592587499065E+03   0.375000000000000E+03   0.534733443237522E+03   0.500000000000000E+01    1   19   15  1  0.1000000E+01   0.3893377E+00   0.5000000E+00     1
         1     1    -1     2   0.692135397105557E+03   0.350000000000000E+03   0.535291806353152E+03   0.500000000000000E+01    1   19   14  1  0.1000000E+01   0.4116723E+00   0.5000000E+00     1
         1     1    -1     2   0.828539380300195E+03   0.325000000000000E+03   0.535702937338682E+03   0.500000000000000E+01    1   19   13  1  0.1000000E+01   0.4281175E+00   0.5000000E+00     1
         1     1    -1     2   0.967133561827550E+03   0.300000000000000E+03   0.536012575825350E+03   0.500000000000000E+01    1   19   12  1  0.1000000E+01   0.4405030E+00   0.5000000E+00     1
         1     1    -1     2   0.110743022647888E+04   0.275000000000000E+03   0.536249569883154E+03   0.500000000000000E+01    1   19   11  1  0.1000000E+01   0.4499828E+00   0.5000000E+00     1
         1     1    -1     2   0.124906657423450E+04   0.250000000000000E+03   0.536433017760161E+03   0.500000000000000E+01    1   19   10  1  0.1000000E+01   0.4573207E+00   0.5000000E+00     1
         1     1    -1     2   0.139176631876465E+04   0.225000000000000E+03   0.536576044258157E+03   0.500000000000000E+01    1   19    9  1  0.1000000E+01   0.4630418E+00   0.5000000E+00     1
         1     1    -1     2   0.153531434230632E+04   0.200000000000000E+03   0.536687930010432E+03   0.500000000000000E+01    1   19    8  1  0.1000000E+01   0.4675172E+00   0.5000000E+00     1
         1     1    -1     2   0.167953958556334E+04   0.175000000000000E+03   0.536775377076566E+03   0.500000000000000E+01    1   19    7  1  0.1000000E+01   0.4710151E+00   0.5000000E+00     1
         1     1    -1     2   0.182430316003170E+04   0.150000000000000E+03   0.536843295088276E+03   0.500000000000000E+01    1   19    6  1  0.1000000E+01   0.4737318E+00   0.5000000E+00     1
         1     1    -1     2   0.196949005434510E+04   0.125000000000000E+03   0.536895316537751E+03   0.500000000000000E+01    1   19    5  1  0.1000000E+01   0.4758127E+00   0.5000000E+00     1
         1     1    -1     2   0.211500314943340E+04   0.100000000000000E+03   0.536934142899814E+03   0.500000000000000E+01    1   19    4  1  0.1000000E+01   0.4773657E+00   0.5000000E+00     1
         1     1    -1     2   0.226075814219378E+04   0.750000000000000E+02   0.536961741962427E+03   0.500000000000000E+01    1   19    3  1  0.1000000E+01   0.4784697E+00   0.5000000E+00     1
         1     1    -1     2   0.240667946190447E+04   0.500000000000000E+02   0.536979435870954E+03   0.500000000000000E+01    1   19    2  1  0.1000000E+01   0.4791774E+00   0.5000000E+00     1
         1     1    -1     2   0.255269814851801E+04   0.250000000000000E+02   0.536988059436235E+03   0.500000000000000E+01    1   19    1  1  0.1000000E+01   0.4795224E+00   0.5000000E+00     1
         1     1    -1     2   0.255269814851801E+04   0.250000000000000E+02   0.536988059436235E+03   0.500000000000000E+01    1   19    1  1  0.1000000E+01   0.4795224E+00   0.5000000E+00     1
         2     1     0     2   0.000000000000000E+00   0.500000000000000E+03   0.515625000000000E+03   0.500000000000000E+01    1   20   21  1  0.0000000E+00   0.6250000E+00   0.5000000E+00     1
         2     1    -1     2   0.000000000000000E+00   0.500000000000000E+03   0.515625000000000E+03   0.500000000000000E+01    1   20   20  1  0.1000000E+01   0.6250000E+00   0.5000000E+00     1
         2     1    -1     2   0.683413746319919E+02   0.475000000000000E+03   0.517369356633422E+03   0.500000000000000E+01    1   20   19  1  0.1000000E+01   0.6947743E+00   0.5000000E+00     1
         2     1    -1     2   0.163958149537314E+03   0.450000000000000E+03   0.518496717665050E+03   0.500000000000000E+01    1   20   18  1  0.1000000E+01   0.7398687E+00   0.5000000E+00     1
         2     1    -1     2   0.276249279643138E+03   0.425000000000000E+03   0.519150734005293E+03   0.500000000000000E+01    1   20   17  1  0.1000000E+01   0.7660294E+00   0.5000000E+00     1
         2     1    -1     2   0.398439946328830E+03   0.400000000000000E+03   0.519547669246080E+03   0.500000000000000E+01    1   20   16  1  0.1000000E+01   0.7819068E+00   0.5000000E+00     1
         2     1    -1     2   0.526944100461534E+03   0.375000000000000E+03   0.519805236428148E+03   0.500000000000000E+01    1   20   15  1  0.1000000E+01   0.7922095E+00   0.5000000E+00     1
         2     1    -1     2   0.659776617205012E+03   0.350000000000000E+03   0.519980971500156E+03   0.500000000000000E+01    1   20   14  1  0.1000000E+01   0.7992389E+00   0.5000000E+00     1
         2     1    -1     2   0.795734673021414E+03   0.325000000000000E+03   0.520104881416679E+03   0.500000000000000E+01    1   20   13  1  0.1000000E+01   0.8041953E+00   0.5000000E+00     1
         2     1    -1     2   0.934030849946047E+03   0.300000000000000E+03   0.520194072966930E+03   0.500000000000000E+01    1   20   12  1  0.1000000E+01   0.8077629E+00   0.5000000E+00     1
         2     1    -1     2   0.107411942976785E+04   0.275000000000000E+03   0.520259073744889E+03   0.500000000000000E+01    1   20   11  1  0.1000000E+01   0.8103629E+00   0.5000000E+00     1
         2     1    -1     2   0.121560579207844E+04   0.250000000000000E+03   0.520306759466911E+03   0.500000000000000E+01    1   20   10  1  0.1000000E+01   0.8122704E+00   0.5000000E+00     1
         2     1    -1     2   0.135819481110234E+04   0.225000000000000E+03   0.520341820000421E+03   0.500000000000000E+01    1   20    9  1  0.1000000E+01   0.8136728E+00   0.5000000E+00     1
         2     1    -1     2   0.150165951091572E+04   0.200000000000000E+03   0.520367556399494E+03   0.500000000000000E+01    1   20    8  1  0.1000000E+01   0.8147023E+00   0.5000000E+00     1
         2     1    -1     2   0.164582100537490E+04   0.175000000000000E+03   0.520386345767399E+03   0.500000000000000E+01    1   20    7  1  0.1000000E+01   0.8154538E+00   0.5000000E+00     1
         2     1    -1     2   0.179053508711237E+04   0.150000000000000E+03   0.520399928654886E+03   0.500000000000000E+01    1   20    6  1  0.1000000E+01   0.8159971E+00   0.5000000E+00     1
         2     1    -1     2   0.193568301261345E+04   0.125000000000000E+03   0.520409602428374E+03   0.500000000000000E+01    1   20    5  1  0.1000000E+01   0.8163841E+00   0.5000000E+00     1
         2     1    -1     2   0.208116485754495E+04   0.100000000000000E+03   0.520416347719009E+03   0.500000000000000E+01    1   20    4  1  0.1000000E+01   0.8166539E+00   0.5000000E+00     1
         2     1    -1     2   0.222689392265717E+04   0.750000000000000E+02   0.520420873636895E+03   0.500000000000000E+01    1   20    3  1  0.1000000E+01   0.8168349E+00   0.5000000E+00     1
         2     1    -1     2   0.237279277900381E+04   0.500000000000000E+02   0.520423624510521E+03   0.500000000000000E+01    1   20    2  1  0.1000000E+01   0.8169450E+00   0.5000000E+00     1
         2     1    -1     2   0.251879115110099E+04   0.250000000000000E+02   0.520424908039423E+03   0.500000000000000E+01    1   20    1  1  0.1000000E+01   0.8169963E+00   0.5000000E+00     1
         2     1    -1     2   0.251879115110099E+04   0.250000000000000E+02   0.520424908039423E+03   0.500000000000000E+01    1   20    1  1  0.1000000E+01   0.8169963E+00   0.5000000E+00     1
         3     1     0     2   0.000000000000000E+00   0.500000000000000E+03   0.509375000000000E+03   0.500000000000000E+01    1   20   21  1  0.0000000E+00   0.3750000E+00   0.5000000E+00     1
         3     1    -1     2   0.000000000000000E+00   0.500000000000000E+03   0.509375000000000E+03   0.500000000000000E+01    1   20   20  1  0.1000000E+01   0.3750000E+00   0.5000000E+00     1
         3     1    -1     2   0.683413746319919E+02   0.475000000000000E+03   0.507596420294154E+03   0.500000000000000E+01    1   20   19  1  0.1000000E+01   0.3038568E+00   0.5000000E+00     1
         3     1    -1     2   0.163958149537314E+03   0.450000000000000E+03   0.506419013165176E+03   0.500000000000000E+01    1   20   18  1  0.1000000E+01   0.2567605E+00   0.5000000E+00     1
         3     1    -1     2   0.276249279643138E+03   0.425000000000000E+03   0.505709396564625E+03   0.500000000000000E+01    1   20   17  1  0.1000000E+01   0.2283759E+00   0.5000000E+00     1
         3     1    -1     2   0.398439946328830E+03   0.400000000000000E+03   0.505255626492071E+03   0.500000000000000E+01    1   20   16  1  0.1000000E+01   0.2102251E+00   0.5000000E+00     1
         3     1    -1     2   0.526944100461534E+03   0.375000000000000E+03   0.504941653875625E+03   0.500000000000000E+01    1   20   15  1  0.1000000E+01   0.1976662E+00   0.5000000E+00     1
         3     1    -1     2   0.659776617205012E+03   0.350000000000000E+03   0.504710906245167E+03   0.500000000000000E+01    1   20   14  1  0.1000000E+01   0.1884362E+00   0.5000000E+00     1
         3     1    -1     2   0.795734673021414E+03   0.325000000000000E+03   0.504534068492861E+03   0.500000000000000E+01    1   20   13  1  0.1000000E+01   0.1813627E+00   0.5000000E+00     1
         3     1    -1     2   0.934030849946047E+03   0.300000000000000E+03   0.504394529407318E+03   0.500000000000000E+01    1   20   12  1  0.1000000E+01   0.1757812E+00   0.5000000E+00     1
         3     1    -1     2   0.107411942976785E+04   0.275000000000000E+03   0.504282159700377E+03   0.500000000000000E+01    1   20   11  1  0.1000000E+01   0.1712864E+00   0.5000000E+00     1
         3     1    -1     2   0.121560579207844E+04   0.250000000000000E+03   0.504190435152409E+03   0.500000000000000E+01    1   20   10  1  0.1000000E+01   0.1676174E+00   0.5000000E+00     1
         3     1    -1     2   0.135819481110234E+04   0.225000000000000E+03   0.504114968981128E+03   0.500000000000000E+01    1   20    9  1  0.1000000E+01   0.1645988E+00   0.5000000E+00     1
         3     1    -1     2   0.150165951091572E+04   0.200000000000000E+03   0.504052712089981E+03   0.500000000000000E+01    1   20    8  1  0.1000000E+01   0.1621085E+00   0.5000000E+00     1
         3     1    -1     2   0.164582100537490E+04   0.175000000000000E+03   0.504001493321072E+03   0.500000000000000E+01    1   20    7  1  0.1000000E+01   0.1600597E+00   0.5000000E+00     1
         3     1    -1     2   0.179053508711237E+04   0.150000000000000E+03   0.503959744435088E+03   0.500000000000000E+01    1   20    6  1  0.1000000E+01   0.1583898E+00   0.5000000E+00     1
         3     1    -1     2   0.193568301261345E+04   0.125000000000000E+03   0.503926335742269E+03   0.500000000000000E+01    1   20    5  1  0.1000000E+01   0.1570534E+00   0.5000000E+00     1
         3     1    -1     2   0.208116485754495E+04   0.100000000000000E+03   0.503900463134436E+03   0.500000000000000E+01    1   20    4  1  0.1000000E+01   0.1560185E+00   0.5000000E+00     1
         3     1    -1     2   0.222689392265717E+04   0.750000000000000E+02   0.503881535575609E+03   0.500000000000000E+01    1   20    3  1  0.1000000E+01   0.1552614E+00   0.5000000E+00     1
         3     1    -1     2   0.237279277900381E+04   0.500000000000000E+02   0.503869101558945E+03   0.500000000000000E+01    1   20    2  1  0.1000000E+01   0.1547641E+00   0.5000000E+00     1
         3     1    -1     2   0.251879115110099E+04   0.250000000000000E+02   0.503862932333364E+03   0.500000000000000E+01    1   20    1  1  0.1000000E+01   0.1545173E+00   0.5000000E+00     1
         3     1    -1     2   0.251879115110099E+04   0.250000000000000E+02   0.503862932333364E+03   0.500000000000000E+01    1   20    1  1  0.1000000E+01   0.1545173E+00   0.5000000E+00     1
         4     1     0     2   0.000000000000000E+00   0.500000000000000E+03   0.503125000000000E+03   0.500000000000000E+01    1   20   21  1  0.0000000E+00   0.1250000E+00   0.5000000E+00     1
         4     1    -1     2   0.000000000000000E+00   0.500000000000000E+03   0.503125000000000E+03   0.500000000000000E+01    1   20   20  1  0.1000000E+01   0.1250000E+00   0.5000000E+00     1
         4     1    -1     2   0.438565170824521E+02   0.482703954800760E+03   0.500000000000000E+03   0.500000000000000E+01    1   21   20  1  0.3081582E+00   0.1000000E+01   0.5000000E+00     1
         4     1    -1     2   0.765047557683103E+02   0.475000000000000E+03   0.497324749914245E+03   0.500000000000000E+01    1   21   19  1  0.1000000E+01   0.8929900E+00   0.5000000E+00     1
         4     1    -1     2   0.186443502547030E+03   0.450000000000000E+03   0.493933634245992E+03   0.500000000000000E+01    1   21   18  1  0.1000000E+01   0.7573454E+00   0.5000000E+00     1
         4     1    -1     2   0.304329498944425E+03   0.425000000000000E+03   0.492055899637858E+03   0.500000000000000E+01    1   21   17  1  0.1000000E+01   0.6822360E+00   0.5000000E+00     1
         4     1    -1     2   0.428971604353024E+03   0.400000000000000E+03   0.490849751109546E+03   0.500000000000000E+01    1   21   16  1  0.1000000E+01   0.6339900E+00   0.5000000E+00     1
         4     1    -1     2   0.558721872090230E+03   0.375000000000000E+03   0.490011003202259E+03   0.500000000000000E+01    1   21   15  1  0.1000000E+01   0.6004401E+00   0.5000000E+00     1
         4     1    -1     2   0.692275051764714E+03   0.350000000000000E+03   0.489397858630054E+03   0.500000000000000E+01    1   21   14  1  0.1000000E+01   0.5759143E+00   0.5000000E+00     1
         4     1    -1     2   0.828691632394502E+03   0.325000000000000E+03   0.488933860955729E+03   0.500000000000000E+01    1   21   13  1  0.1000000E+01   0.5573544E+00   0.5000000E+00     1
         4     1    -1     2   0.967300356607094E+03   0.300000000000000E+03   0.488573844384508E+03   0.500000000000000E+01    1   21   12  1  0.1000000E+01   0.5429538E+00   0.5000000E+00     1
         4     1    -1     2   0.110761340201145E+04   0.275000000000000E+03   0.488289404046287E+03   0.500000000000000E+01    1   21   11  1  0.1000000E+01   0.5315762E+00   0.5000000E+00     1
         4     1    -1     2   0.124926786781242E+04   0.250000000000000E+03   0.488061816574961E+03   0.500000000000000E+01    1   21   10  1  0.1000000E+01   0.5224727E+00   0.5000000E+00     1
         4     1    -1     2   0.139198730045274E+04   0.225000000000000E+03   0.487878272788660E+03   0.500000000000000E+01    1   21    9  1  0.1000000E+01   0.5151309E+00   0.5000000E+00     1
         4     1    -1     2   0.153555637079124E+04   0.200000000000000E+03   0.487729753774014E+03   0.500000000000000E+01    1   21    8  1  0.1000000E+01   0.5091902E+00   0.5000000E+00     1
         4     1    -1     2   0.167980381207851E+04   0.175000000000000E+03   0.487609772121849E+03   0.500000000000000E+01    1   21    7  1  0.1000000E+01   0.5043909E+00   0.5000000E+00     1
         4     1    -1     2   0.182459064612797E+04   0.150000000000000E+03   0.487513596422168E+03   0.500000000000000E+01    1   21    6  1  0.1000000E+01   0.5005439E+00   0.5000000E+00     1
         4     1    -1     2   0.196980188533296E+04   0.125000000000000E+03   0.487437761812169E+03   0.500000000000000E+01    1   21    5  1  0.1000000E+01   0.4975105E+00   0.5000000E+00     1
         4     1    -1     2   0.211534025070474E+04   0.100000000000000E+03   0.487379738032209E+03   0.500000000000000E+01    1   21    4  1  0.1000000E+01   0.4951895E+00   0.5000000E+00     1
         4     1    -1     2   0.226112089757702E+04   0.750000000000000E+02   0.487337676158951E+03   0.500000000000000E+01    1   21    3  1  0.1000000E+01   0.4935070E+00   0.5000000E+00     1
         4     1    -1     2   0.240706813320284E+04   0.500000000000000E+02   0.487310262708553E+03   0.500000000000000E+01    1   21    2  1  0.1000000E+01   0.4924105E+00   0.5000000E+00     1
         4     1    -1     2   0.255311324220970E+04   0.250000000000000E+02   0.487296745115087E+03   0.500000000000000E+01    1   21    1  1  0.1000000E+01   0.4918698E+00   0.5000000E+00     1
         4     1    -1     2   0.255311324220970E+04   0.250000000000000E+02   0.487296745115087E+03   0.500000000000000E+01    1   21    1  1  0.1000000E+01   0.4918698E+00   0.5000000E+00     1
         5     1     0     2   0.000000000000000E+00   0.525000000000000E+03   0.521875000000000E+03   0.500000000000000E+01    1   20   21  1  0.1000000E+01   0.8750000E+00   0.5000000E+00     1
         5     1    -1     2   0.000000000000000E+00   0.525000000000000E+03   0.521875000000000E+03   0.500000000000000E+01    1   20   22  1  0.0000000E+00   0.8750000E+00   0.5000000E+00     1
         5     1    -1     2   0.441039127915207E+02   0.530622977075733E+03   0.525000000000000E+03   0.500000000000000E+01    1   19   22  1  0.2249191E+00   0.0000000E+00   0.5000000E+00     1
         5     1    -1     2   0.123063644147945E+03   0.525000000000000E+03   0.531436242991704E+03   0.500000000000000E+01    1   19   21  1  0.1000000E+01   0.2574497E+00   0.5000000E+00     1
         5     1    -1     2   0.220891255763303E+03   0.515218017282080E+03   0.550000000000000E+03   0.500000000000000E+01    1   18   21  1  0.6087207E+00   0.0000000E+00   0.5000000E+00     1
         5     1    -1     2   0.313774924764665E+03   0.500000000000000E+03   0.561336449892406E+03   0.500000000000000E+01    1   18   20  1  0.1000000E+01   0.4534580E+00   0.5000000E+00     1
         5     1    -1     2   0.445120234727376E+03   0.475000000000000E+03   0.570493305876411E+03   0.500000000000000E+01    1   18   19  1  0.1000000E+01   0.8197322E+00   0.5000000E+00     1
         5     1    -1     2   0.547183288701721E+03   0.454629402949077E+03   0.575000000000000E+03   0.500000000000000E+01    1   17   19  1  0.1851761E+00   0.0000000E+00   0.5000000E+00     1
         5     1    -1     2   0.572201038037911E+03   0.450000000000000E+03   0.576100843537175E+03   0.500000000000000E+01    1   17   18  1  0.1000000E+01   0.4403374E-01   0.5000000E+00     1
         5     1    -1     2   0.706797224938377E+03   0.425000000000000E+03   0.580106972388734E+03   0.500000000000000E+01    1   17   17  1  0.1000000E+01   0.2042789E+00   0.5000000E+00     1
         5     1    -1     2   0.841799936380355E+03   0.400000000000000E+03   0.582909599659872E+03   0.500000000000000E+01    1   17   16  1  0.1000000E+01   0.3163840E+00   0.5000000E+00     1
         5     1    -1     2   0.978133350608888E+03   0.375000000000000E+03   0.584954763657694E+03   0.500000000000000E+01    1   17   15  1  0.1000000E+01   0.3981905E+00   0.5000000E+00     1
         5     1    -1     2   0.111601945818772E+04   0.350000000000000E+03   0.586491466563607E+03   0.500000000000000E+01    1   17   14  1  0.1000000E+01   0.4596587E+00   0.5000000E+00     1
         5     1    -1     2   0.125539307733390E+04   0.325000000000000E+03   0.587670595244550E+03   0.500000000000000E+01    1   17   13  1  0.1000000E+01   0.5068238E+00   0.5000000E+00     1
         5     1    -1     2   0.139608781600254E+04   0.300000000000000E+03   0.588589417079335E+03   0.500000000000000E+01    1   17   12  1  0.1000000E+01   0.5435767E+00   0.5000000E+00     1
         5     1    -1     2   0.153791530784281E+04   0.275000000000000E+03   0.589313531869602E+03   0.500000000000000E+01    1   17   11  1  0.1000000E+01   0.5725413E+00   0.5000000E+00     1
         5     1    -1     2   0.168069654421985E+04   0.250000000000000E+03   0.589888706460104E+03   0.500000000000000E+01    1   17   10  1  0.1000000E+01   0.5955483E+00   0.5000000E+00     1
         5     1    -1     2   0.182427226100778E+04   0.225000000000000E+03   0.590347715029179E+03   0.500000000000000E+01    1   17    9  1  0.1000000E+01   0.6139086E+00   0.5000000E+00     1
         5     1    -1     2   0.196850454520417E+04   0.200000000000000E+03   0.590714503186541E+03   0.500000000000000E+01    1   17    8  1  0.1000000E+01   0.6285801E+00   0.5000000E+00     1
         5     1    -1     2   0.211327503138096E+04   0.175000000000000E+03   0.591006822507968E+03   0.500000000000000E+01    1   17    7  1  0.1000000E+01   0.6402729E+00   0.5000000E+00     1
         5     1    -1     2   0.225848196680333E+04   0.150000000000000E+03   0.591237946185621E+03   0.500000000000000E+01    1   17    6  1  0.1000000E+01   0.6495178E+00   0.5000000E+00     1
         5     1    -1     2   0.240403718141403E+04   0.125000000000000E+03   0.591417819488860E+03   0.500000000000000E+01    1   17    5  1  0.1000000E+01   0.6567128E+00   0.5000000E+00     1
         5     1    -1     2   0.254986356612769E+04   0.100000000000000E+03   0.591553865078393E+03   0.500000000000000E+01    1   17    4  1  0.1000000E+01   0.6621546E+00   0.5000000E+00     1
         5     1    -1     2   0.269589275991700E+04   0.750000000000000E+02   0.591651543503245E+03   0.500000000000000E+01    1   17    3  1  0.1000000E+01   0.6660617E+00   0.5000000E+00     1
         5     1    -1     2   0.284206252418809E+04   0.500000000000000E+02   0.591714677988058E+03   0.500000000000000E+01    1   17    2  1  0.1000000E+01   0.6685871E+00   0.5000000E+00     1
         5     1    -1     2   0.298831481106675E+04   0.250000000000000E+02   0.591745654403947E+03   0.500000000000000E+01    1   17    1  1  0.1000000E+01   0.6698262E+00   0.5000000E+00     1
         5     1    -1     2   0.298831481106675E+04   0.250000000000000E+02   0.591745654403947E+03   0.500000000000000E+01    1   17    1  1  0.1000000E+01   0.6698262E+00   0.5000000E+00     1
         6     1     0     2   0.000000000000000E+00   0.525000000000000E+03   0.515625000000000E+03   0.500000000000000E+01    1   20   21  1  0.1000000E+01   0.6250000E+00   0.5000000E+00     1
         6     1    -1     2   0.000000000000000E+00   0.525000000000000E+03   0.515625000000000E+03   0.500000000000000E+01    1   20   22  1  0.0000000E+00   0.6250000E+00   0.5000000E+00     1
         6     1    -1     2   0.213050296635895E+03   0.541868917759530E+03   0.525000000000000E+03   0.500000000000000E+01    1   19   22  1  0.6747567E+00   0.0000000E+00   0.5000000E+00     1
         6     1    -1     2   0.450241029157654E+03   0.525000000000000E+03   0.544308624769908E+03   0.500000000000000E+01    1   19   21  1  0.1000000E+01   0.7723450E+00   0.5000000E+00     1
         6     1    -1     2   0.487395516118012E+03   0.522000986286188E+03   0.550000000000000E+03   0.500000000000000E+01    1   18   21  1  0.8800395E+00   0.0000000E+00   0.5000000E+00     1
         6     1    -1     2   0.628878452997460E+03   0.500000000000000E+03   0.566389331934892E+03   0.500000000000000E+01    1   18   20  1  0.1000000E+01   0.6555733E+00   0.5000000E+00     1
         6     1    -1     2   0.758751531374972E+03   0.475293435979540E+03   0.575000000000000E+03   0.500000000000000E+01    1   17   20  1  0.1173744E-01   0.0000000E+00   0.5000000E+00     1
         6     1    -1     2   0.760380073265796E+03   0.475000000000000E+03   0.575102987261388E+03   0.500000000000000E+01    1   17   19  1  0.1000000E+01   0.4119490E-02   0.5000000E+00     1
         6     1    -1     2   0.897075868180103E+03   0.450000000000000E+03   0.581044907769227E+03   0.500000000000000E+01    1   17   18  1  0.1000000E+01   0.2417963E+00   0.5000000E+00     1
         6     1    -1     2   0.103167205508057E+04   0.425000000000000E+03   0.585039950182052E+03   0.500000000000000E+01    1   17   17  1  0.1000000E+01   0.4015980E+00   0.5000000E+00     1
         6     1    -1     2   0.116667476652255E+04   0.400000000000000E+03   0.587883585178707E+03   0.500000000000000E+01    1   17   16  1  0.1000000E+01   0.5153434E+00   0.5000000E+00     1
         6     1    -1     2   0.130300818075108E+04   0.375000000000000E+03   0.589985504170067E+03   0.500000000000000E+01    1   17   15  1  0.1000000E+01   0.5994202E+00   0.5000000E+00     1
         6     1    -1     2   0.144089428832991E+04   0.350000000000000E+03   0.591579428911371E+03   0.500000000000000E+01    1   17   14  1  0.1000000E+01   0.6631772E+00   0.5000000E+00     1
         6     1    -1     2   0.158026790747610E+04   0.325000000000000E+03   0.592810483918421E+03   0.500000000000000E+01    1   17   13  1  0.1000000E+01   0.7124194E+00   0.5000000E+00     1
         6     1    -1     2   0.172096264614473E+04   0.300000000000000E+03   0.593774299771141E+03   0.500000000000000E+01    1   17   12  1  0.1000000E+01   0.7509720E+00   0.5000000E+00     1
         6     1    -1     2   0.186279013798500E+04   0.275000000000000E+03   0.594536519867001E+03   0.500000000000000E+01    1   17   11  1  0.1000000E+01   0.7814608E+00   0.5000000E+00     1
         6     1    -1     2   0.200557137436204E+04   0.250000000000000E+03   0.595143559045387E+03   0.500000000000000E+01    1   17   10  1  0.1000000E+01   0.8057424E+00   0.5000000E+00     1
         6     1    -1     2   0.214914709114997E+04   0.225000000000000E+03   0.595628988522969E+03   0.500000000000000E+01    1   17    9  1  0.1000000E+01   0.8251595E+00   0.5000000E+00     1
         6     1    -1     2   0.229337937534636E+04   0.200000000000000E+03   0.596017518745628E+03   0.500000000000000E+01    1   17    8  1  0.1000000E+01   0.8407007E+00   0.5000000E+00     1
         6     1    -1     2   0.243814986152315E+04   0.175000000000000E+03   0.596327570574862E+03   0.500000000000000E+01    1   17    7  1  0.1000000E+01   0.8531028E+00   0.5000000E+00     1
         6     1    -1     2   0.258335679694552E+04   0.150000000000000E+03   0.596572975719369E+03   0.500000000000000E+01    1   17    6  1  0.1000000E+01   0.8629190E+00   0.5000000E+00     1
         6     1    -1     2   0.272891201155622E+04   0.125000000000000E+03   0.596764129481637E+03   0.500000000000000E+01    1   17    5  1  0.1000000E+01   0.8705652E+00   0.5000000E+00     1
         6     1    -1     2   0.287473839626988E+04   0.100000000000000E+03   0.596908805162966E+03   0.500000000000000E+01    1   17    4  1  0.1000000E+01   0.8763522E+00   0.5000000E+00     1
         6     1    -1     2   0.302076759005919E+04   0.750000000000000E+02   0.597012729509195E+03   0.500000000000000E+01    1   17    3  1  0.1000000E+01   0.8805092E+00   0.5000000E+00     1
         6     1    -1     2   0.316693735433029E+04   0.500000000000000E+02   0.597079922787398E+03   0.500000000000000E+01    1   17    2  1  0.1000000E+01   0.8831969E+00   0.5000000E+00     1
         6     1    -1     2   0.331318964120894E+04   0.250000000000000E+02   0.597112898774019E+03   0.500000000000000E+01    1   17    1  1  0.1000000E+01   0.8845160E+00   0.5000000E+00     1
         6     1    -1     2   0.331318964120894E+04   0.250000000000000E+02   0.597112898774019E+03   0.500000000000000E+01    1   17    1  1  0.1000000E+01   0.8845160E+00   0.5000000E+00     1
         7     1     0     2   0.000000000000000E+00   0.525000000000000E+03   0.509375000000000E+03   0.500000000000000E+01    1   20   21  1  0.1000000E+01   0.3750000E+00   0.5000000E+00     1
         7     1    -1     2   0.000000000000000E+00   0.525000000000000E+03   0.509375000000000E+03   0.500000000000000E+01    1   20   22  1  0.0000000E+00   0.3750000E+00   0.5000000E+00     1
         7     1    -1     2   0.210831184303680E+03   0.541787497565591E+03   0.500000000000000E+03   0.500000000000000E+01    1   21   22  1  0.6714999E+00   0.1000000E+01   0.5000000E+00     1
         7     1    -1     2   0.446865483155670E+03   0.525000000000000E+03   0.480691864087387E+03   0.500000000000000E+01    1   21   21  1  0.1000000E+01   0.2276746E+00   0.5000000E+00     1
         7     1    -1     2   0.483925480130310E+03   0.522009501781586E+03   0.475000000000000E+03   0.500000000000000E+01    1   22   21  1  0.8803801E+00   0.1000000E+01   0.5000000E+00     1
         7     1    -1     2   0.625471599932782E+03   0.500000000000000E+03   0.458555626102853E+03   0.500000000000000E+01    1   22   20  1  0.1000000E+01   0.3422250E+00   0.5000000E+00     1
         7     1    -1     2   0.753767149190295E+03   0.475607928767802E+03   0.450000000000000E+03   0.500000000000000E+01    1   23   20  1  0.2431715E-01   0.1000000E+01   0.5000000E+00     1
         7     1    -1     2   0.757142978078705E+03   0.475000000000000E+03   0.449785254907742E+03   0.500000000000000E+01    1   23   19  1  0.1000000E+01   0.9914102E+00   0.5000000E+00     1