Pcp_File_Version=4
*** BLOCK I: ATMOSPHERIC INFORMATION  **********************************
   MaxAL                    (MaxAL = number of atmospheric data-records)
   3652
 DailyVar  SinusVar  lLay  lBCCycles lInterc lDummy  lDummy  lDummy  lDummy  lDummy
       f       f       f       f       f       f       f       f       f       f
 hCritS                 (max. allowed pressure head at the soil surface)
      0
       tAtm        Prec       rSoil       rRoot      hCritA          rB          hB          ht    RootDepth
          1      0.0001    0.000111    0.000309        1000           0           0           0 
          2      0.0002    7.1e-005    0.000199        1000           0           0           0 
          3      0.0006    2.9e-005    8.1e-005        1000           0           0           0 
          4      0.0002    5.7e-005     0.00016        1000           0           0           0 
          5      0.0001    2.9e-005    8.1e-005        1000           0           0           0 
          6      0.0018    1.9e-005    5.4e-005        1000           0           0           0 
          7      0.0003    2.4e-005    6.7e-005        1000           0           0           0 
          8           0    1.9e-005    5.4e-005        1000           0           0           0 
          9      0.0039    7.1e-005    0.000197        1000           0           0           0 
         10      0.0014    6.3e-005    0.000176        1000           0           0           0 
         11      0.0021    3.7e-005    0.000102        1000           0           0           0 
         12      0.0002    3.1e-005    8.5e-005        1000           0           0           0 
         13           0    2.4e-005    6.7e-005        1000           0           0           0 
         14           0    2.3e-005    6.5e-005        1000           0           0           0 
         15      0.0001    1.8e-005      5e-005        1000           0           0           0 
         16           0    1.7e-005    4.9e-005        1000           0           0           0 
         17      0.0019    3.1e-005    8.5e-005        1000           0           0           0 
         18      0.0001    2.6e-005    7.3e-005        1000           0           0           0 
         19      0.0002    1.9e-005    5.2e-005        1000           0           0           0 
         20      0.0003      8e-006    2.2e-005        1000           0           0           0 
         21      0.0001    7.8e-005    0.000219        1000           0           0           0 
         22      0.0001    4.7e-005    0.000131        1000           0           0           0 
         23      0.0001    4.4e-005    0.000122        1000           0           0           0 
         24      0.0001    5.4e-005    0.000151        1000           0           0           0 
         25      0.0001    4.4e-005    0.000123        1000           0           0           0 
         26      0.0006      4e-005    0.000113        1000           0           0           0 
         27      0.0044    6.3e-005    0.000175        1000           0           0           0 
         28      0.0054    8.8e-005    0.000245        1000           0           0           0 
         29      0.0045    4.7e-005     0.00013        1000           0           0           0 
         30      0.0027    5.9e-005    0.000164        1000           0           0           0 
         31           0    6.6e-005    0.000186        1000           0           0           0 
         32      0.0002    3.3e-005    9.3e-005        1000           0           0           0 
         33      0.0023    7.7e-005    0.000214        1000           0           0           0 
         34      0.0001    5.7e-005    0.000158        1000           0           0           0 
         35           0    7.5e-005    0.000209        1000           0           0           0 
         36      0.0001    0.000109    0.000305        1000           0           0           0 
         37      0.0001    7.4e-005    0.000206        1000           0           0           0 
         38      0.0001    5.2e-005    0.000145        1000           0           0           0 
         39      0.0001    6.7e-005    0.000188        1000           0           0           0 
         40           0    5.6e-005    0.000158        1000           0           0           0 
         41           0    6.5e-005    0.000183        1000           0           0           0 
         42      0.0043    6.5e-005    0.000183        1000           0           0           0 
         43      0.0004    5.6e-005    0.000156        1000           0           0           0 
         44      0.0001    5.5e-005    0.000155        1000           0           0           0 
         45           0    5.9e-005    0.000164        1000           0           0           0 
         46      0.0007    5.6e-005    0.000156        1000           0           0           0 
         47       0.001    6.5e-005    0.000183        1000           0           0           0 
         48           0    0.000104    0.000292        1000           0           0           0 
         49      0.0001    8.6e-005     0.00024        1000           0           0           0 
         50      0.0027    8.1e-005    0.000227        1000           0           0           0 
         51      0.0002    0.000114    0.000319        1000           0           0           0 
         52      0.0001    0.000156    0.000435        1000           0           0           0 
         53      0.0015    8.3e-005    0.000231        1000           0           0           0 
         54      0.0008    0.000116    0.000325        1000           0           0           0 
         55       0.001    0.000127    0.000355        1000           0           0           0 
         56      0.0001    7.4e-005    0.000206        1000           0           0           0 
         57      0.0021    0.000119    0.000332        1000           0           0           0 
         58           0    0.000149    0.000415        1000           0           0           0 
         59      0.0013    0.000307    0.000859        1000           0           0           0 
         60      0.0032    0.000218    0.000609        1000           0           0           0 
         61      0.0015    0.000208     0.00058        1000           0           0           0 
         62      0.0004    0.000165     0.00046        1000           0           0           0 
         63      0.0014    0.000202    0.000565        1000           0           0           0 
         64      0.0008    0.000124    0.000346        1000           0           0           0 
         65           0    0.000135    0.000376        1000           0           0           0 
         66           0    0.000156    0.000435        1000           0           0           0 
         67           0    0.000143    0.000399        1000           0           0           0 
         68      0.0001    0.000187    0.000521        1000           0           0           0 
         69      0.0001    0.000147    0.000412        1000           0           0           0 
         70      0.0001    0.000193    0.000539        1000           0           0           0 
         71      0.0009    8.6e-005    0.000241        1000           0           0           0 
         72       0.001    0.000175     0.00049        1000           0           0           0 
         73      0.0021     0.00014     0.00039        1000           0           0           0 
         74      0.0001     0.00017    0.000474        1000           0           0           0 
         75      0.0001     0.00028    0.000781        1000           0           0           0 
         76      0.0005    0.000159    0.000443        1000           0           0           0 
         77      0.0001    0.000237    0.000663        1000           0           0           0 
         78      0.0001    0.000327    0.000913        1000           0           0           0 
         79      0.0058    0.000162    0.000453        1000           0           0           0 
         80      0.0031    0.000171    0.000476        1000           0           0           0 
         81      0.0001    0.000212    0.000592        1000           0           0           0 
         82      0.0001    0.000282    0.000788        1000           0           0           0 
         83      0.0001    0.000465    0.001299        1000           0           0           0 
         84      0.0001    0.000713    0.001992        1000           0           0           0 
         85           0    0.000641     0.00179        1000           0           0           0 
         86      0.0075    0.000278    0.000777        1000           0           0           0 
         87      0.0002    0.000408    0.001139        1000           0           0           0 
         88           0    0.000317    0.000885        1000           0           0           0 
         89      0.0001    0.000324    0.000905        1000           0           0           0 
         90      0.0102    0.000475    0.001327        1000           0           0           0 
         91      0.0001    0.000548    0.001531        1000           0           0           0 
         92      0.0089    0.000292    0.000817        1000           0           0           0 
         93      0.0001    0.000213    0.000596        1000           0           0           0 
         94           0    0.000403    0.001126        1000           0           0           0 
         95      0.0001    0.000366    0.001024        1000           0           0           0 
         96      0.0001    0.000407    0.001137        1000           0           0           0 
         97      0.0001    0.000377    0.001053        1000           0           0           0 
         98      0.0004    0.000379     0.00106        1000           0           0           0 
         99      0.0009     0.00041    0.001146        1000           0           0           0 
        100      0.0005    0.000313    0.000874        1000           0           0           0 
        101      0.0001     0.00052    0.001453        1000           0           0           0 
        102      0.0001    0.000774    0.002162        1000           0           0           0 
        103      0.0001    0.000596    0.001664        1000           0           0           0 
        104      0.0001    0.000624    0.001742        1000           0           0           0 
        105      0.0001    0.000823      0.0023        1000           0           0           0 
        106      0.0001    0.000525    0.001468        1000           0           0           0 
        107      0.0001    0.000799    0.002232        1000           0           0           0 
        108      0.0001    0.000908    0.002537        1000           0           0           0 
        109      0.0001    0.000818    0.002285        1000           0           0           0 
        110      0.0003    0.000683    0.001909        1000           0           0           0 
        111      0.0038    0.000412    0.001152        1000           0           0           0 
        112      0.0001    0.000566    0.001583        1000           0           0           0 
        113           0    0.000705    0.001969        1000           0           0           0 
        114           0    0.000832    0.002324        1000           0           0           0 
        115      0.0001    0.001014    0.002834        1000           0           0           0 
        116      0.0089    0.001332    0.003721        1000           0           0           0 
        117      0.0007    0.000344    0.000961        1000           0           0           0 
        118      0.0001    0.000662    0.001851        1000           0           0           0 
        119      0.0001    0.000786    0.002196        1000           0           0           0 
        120           0    0.001021    0.002853        1000           0           0           0 
        121      0.0001    0.000847    0.002367        1000           0           0           0 
        122      0.0053    0.000676    0.001888        1000           0           0           0 
        123      0.0199    0.000285    0.000796        1000           0           0           0 
        124           0    0.000318    0.000887        1000           0           0           0 
        125      0.0001    0.000662    0.001848        1000           0           0           0 
        126      0.0026    0.000297     0.00083        1000           0           0           0 
        127      0.0206    0.000259    0.000723        1000           0           0           0 
        128      0.0001    0.000472    0.001318        1000           0           0           0 
        129      0.0001    0.000486    0.001358        1000           0           0           0 
        130      0.0058    0.000294    0.000822        1000           0           0           0 
        131      0.0001    0.000674    0.001884        1000           0           0           0 
        132      0.0127    0.000728    0.002034        1000           0           0           0 
        133      0.0033    0.000271    0.000756        1000           0           0           0 
        134      0.0109    0.000334    0.000934        1000           0           0           0 
        135      0.0012    0.000256    0.000714        1000           0           0           0 
        136           0    0.000379    0.001059        1000           0           0           0 
        137      0.0001     0.00032    0.000893        1000           0           0           0 
        138      0.0082    0.000336    0.000938        1000           0           0           0 
        139      0.0001    0.000483    0.001349        1000           0           0           0 
        140      0.0001    0.000641    0.001791        1000           0           0           0 
        141      0.0032    0.000622    0.001739        1000           0           0           0 
        142      0.0009    0.000785    0.002193        1000           0           0           0 
        143      0.0003     0.00079    0.002207        1000           0           0           0 
        144      0.0002    0.000476    0.001329        1000           0           0           0 
        145      0.0016    0.000734     0.00205        1000           0           0           0 
        146      0.0001    0.000927    0.002589        1000           0           0           0 
        147      0.0019    0.000434    0.001214        1000           0           0           0 
        148      0.0013    0.000619     0.00173        1000           0           0           0 
        149      0.0001    0.001074    0.003001        1000           0           0           0 
        150      0.0081    0.000826    0.002308        1000           0           0           0 
        151      0.0068    0.000403    0.001126        1000           0           0           0 
        152      0.0001      0.0004    0.001119        1000           0           0           0 
        153           0    0.000421    0.001176        1000           0           0           0 
        154      0.0001    0.000954    0.002666        1000           0           0           0 
        155      0.0001    0.001354    0.003785        1000           0           0           0 
        156      0.0001    0.001249     0.00349        1000           0           0           0 
        157      0.0001    0.001303    0.003641        1000           0           0           0 
        158       0.004    0.000927     0.00259        1000           0           0           0 
        159           0    0.001012    0.002828        1000           0           0           0 
        160      0.0019     0.00104    0.002907        1000           0           0           0 
        161      0.0001    0.001046    0.002922        1000           0           0           0 
        162      0.0208    0.001245    0.003478        1000           0           0           0 
        163           0    0.001048    0.002927        1000           0           0           0 
        164           0    0.000553    0.001546        1000           0           0           0 
        165      0.0001    0.000623    0.001741        1000           0           0           0 
        166      0.0008    0.000722    0.002018        1000           0           0           0 
        167      0.0001    0.001064    0.002973        1000           0           0           0 
        168      0.0001    0.001192    0.003331        1000           0           0           0 
        169      0.0001     0.00123    0.003436        1000           0           0           0 
        170      0.0001    0.000889    0.002485        1000           0           0           0 
        171      0.0001    0.000967    0.002703        1000           0           0           0 
        172      0.0001     0.00091    0.002543        1000           0           0           0 
        173      0.0001    0.000939    0.002625        1000           0           0           0 
        174      0.0001    0.001252    0.003497        1000           0           0           0 
        175      0.0001    0.001222    0.003415        1000           0           0           0 
        176      0.0001    0.001002      0.0028        1000           0           0           0 
        177      0.0001    0.001223    0.003418        1000           0           0           0 
        178      0.0001    0.001327    0.003707        1000           0           0           0 
        179      0.0001      0.0014    0.003912        1000           0           0           0 
        180      0.0001    0.001555    0.004344        1000           0           0           0 
        181      0.0001    0.001465    0.004095        1000           0           0           0 
        182      0.0001    0.001339    0.003743        1000           0           0           0 
        183      0.0001    0.001427    0.003988        1000           0           0           0 
        184      0.0001    0.001585    0.004429        1000           0           0           0 
        185      0.0001    0.001391    0.003885        1000           0           0           0 
        186           0     0.00151    0.004218        1000           0           0           0 
        187      0.0137    0.000544    0.001521        1000           0           0           0 
        188      0.0001    0.001178    0.003293        1000           0           0           0 
        189      0.0001    0.001287    0.003595        1000           0           0           0 
        190      0.0001    0.001367    0.003821        1000           0           0           0 
        191      0.0001     0.00178    0.004974        1000           0           0           0 
        192      0.0001    0.001916    0.005353        1000           0           0           0 
        193      0.0001     0.00196    0.005476        1000           0           0           0 
        194      0.0003    0.001503    0.004201        1000           0           0           0 
        195      0.0001    0.001491    0.004165        1000           0           0           0 
        196      0.0001    0.001417    0.003958        1000           0           0           0 
        197      0.0001    0.001712    0.004784        1000           0           0           0 
        198      0.0007    0.001796    0.005018        1000           0           0           0 
        199      0.0001    0.000947    0.002645        1000           0           0           0 
        200      0.0001    0.001331    0.003719        1000           0           0           0 
        201      0.0001    0.001248    0.003488        1000           0           0           0 
        202      0.0001    0.001858    0.005192        1000           0           0           0 
        203      0.0067    0.001804    0.005041        1000           0           0           0 
        204      0.0127    0.000594    0.001661        1000           0           0           0 
        205      0.0696    0.000331    0.000924        1000           0           0           0 
        206      0.0001    0.000617    0.001723        1000           0           0           0 
        207      0.0001    0.000766     0.00214        1000           0           0           0 
        208       0.002     0.00061    0.001703        1000           0           0           0 
        209      0.0196    0.000443    0.001237        1000           0           0           0 
        210           0     0.00082    0.002291        1000           0           0           0 
        211      0.0001    0.001074       0.003        1000           0           0           0 
        212      0.0001     0.00111    0.003101        1000           0           0           0 
        213      0.0001    0.001223    0.003416        1000           0           0           0 
        214      0.0075    0.000856    0.002392        1000           0           0           0 
        215      0.0226    0.000366    0.001022        1000           0           0           0 
        216      0.0001    0.000811    0.002266        1000           0           0           0 
        217      0.0001    0.000938    0.002621        1000           0           0           0 
        218      0.0112    0.000569     0.00159        1000           0           0           0 
        219      0.0039    0.000395    0.001105        1000           0           0           0 
        220      0.0005    0.000391    0.001092        1000           0           0           0 
        221           0    0.000778    0.002175        1000           0           0           0 
        222      0.0063    0.000649    0.001814        1000           0           0           0 
        223      0.0003    0.001046    0.002922        1000           0           0           0 
        224      0.0001    0.001111    0.003105        1000           0           0           0 
        225      0.0001     0.00105    0.002934        1000           0           0           0 
        226           0    0.000872    0.002436        1000           0           0           0 
        227      0.0002    0.000977     0.00273        1000           0           0           0 
        228      0.0124    0.001123    0.003139        1000           0           0           0 
        229           0    0.000744     0.00208        1000           0           0           0 
        230      0.0059     0.00041    0.001146        1000           0           0           0 
        231       0.001    0.000676    0.001889        1000           0           0           0 
        232      0.0001    0.000966    0.002698        1000           0           0           0 
        233      0.0001    0.001166    0.003257        1000           0           0           0 
        234      0.0347     0.00102    0.002849        1000           0           0           0 
        235      0.0013    0.000435    0.001217        1000           0           0           0 
        236      0.0001    0.001042    0.002912        1000           0           0           0 
        237      0.0026    0.000708    0.001978        1000           0           0           0 
        238           0    0.000526    0.001469        1000           0           0           0 
        239      0.0234     0.00023    0.000642        1000           0           0           0 
        240      0.0011    0.000403    0.001127        1000           0           0           0 
        241      0.0026     0.00048     0.00134        1000           0           0           0 
        242      0.0226    0.000271    0.000757        1000           0           0           0 
        243      0.0012    0.000321    0.000897        1000           0           0           0 
        244      0.0001    0.000686    0.001916        1000           0           0           0 
        245      0.0007    0.000483    0.001351        1000           0           0           0 
        246      0.0001    0.000663    0.001852        1000           0           0           0 
        247      0.0013    0.000522    0.001459        1000           0           0           0 
        248           0    0.000472     0.00132        1000           0           0           0 
        249      0.0008    0.000372    0.001038        1000           0           0           0 
        250      0.0001    0.000566    0.001581        1000           0           0           0 
        251      0.0001     0.00069    0.001927        1000           0           0           0 
        252       0.005    0.000477    0.001332        1000           0           0           0 
        253      0.0016    0.000258    0.000721        1000           0           0           0 
        254      0.0001    0.000556    0.001554        1000           0           0           0 
        255      0.0001     0.00059    0.001649        1000           0           0           0 
        256      0.0064    0.000411    0.001149        1000           0           0           0 
        257      0.0049     0.00022    0.000614        1000           0           0           0 
        258      0.0048    0.000375    0.001047        1000           0           0           0 
        259      0.0042    0.000276    0.000771        1000           0           0           0 
        260      0.0004    0.000362    0.001012        1000           0           0           0 
        261           0    0.000472    0.001319        1000           0           0           0 
        262      0.0003    0.000427    0.001194        1000           0           0           0 
        263      0.0022    0.000332    0.000927        1000           0           0           0 
        264           0    0.000424    0.001186        1000           0           0           0 
        265      0.0001    0.000379    0.001058        1000           0           0           0 
        266      0.0001    0.000515     0.00144        1000           0           0           0 
        267      0.0001    0.000517    0.001445        1000           0           0           0 
        268      0.0001    0.000491    0.001372        1000           0           0           0 
        269           0    0.000321    0.000897        1000           0           0           0 
        270      0.0336    0.000161     0.00045        1000           0           0           0 
        271      0.0242    0.000125     0.00035        1000           0           0           0 
        272      0.0001    0.000265     0.00074        1000           0           0           0 
        273      0.0001    0.000368    0.001027        1000           0           0           0 
        274      0.0001     0.00023    0.000642        1000           0           0           0 
        275      0.0001    0.000237    0.000663        1000           0           0           0 
        276      0.0001    0.000415     0.00116        1000           0           0           0 
        277      0.0001    0.000474    0.001325        1000           0           0           0 
        278      0.0001    0.000503    0.001404        1000           0           0           0 
        279      0.0001      0.0004    0.001117        1000           0           0           0 
        280      0.0001    0.000357    0.000997        1000           0           0           0 
        281      0.0001    0.000296    0.000826        1000           0           0           0 
        282      0.0001    0.000296    0.000827        1000           0           0           0 
        283      0.0001    0.000246    0.000686        1000           0           0           0 
        284      0.0001    0.000204    0.000571        1000           0           0           0 
        285      0.0001    0.000182    0.000509        1000           0           0           0 
        286      0.0001    0.000179      0.0005        1000           0           0           0 
        287      0.0009    0.000146    0.000408        1000           0           0           0 
        288      0.0008    0.000203    0.000566        1000           0           0           0 
        289       0.001      0.0002     0.00056        1000           0           0           0 
        290      0.0001    0.000167    0.000465        1000           0           0           0 
        291      0.0001    0.000157     0.00044        1000           0           0           0 
        292      0.0006    0.000132     0.00037        1000           0           0           0 
        293       0.002    8.4e-005    0.000234        1000           0           0           0 
        294      0.0029    0.000188    0.000525        1000           0           0           0 
        295      0.0003    0.000151    0.000423        1000           0           0           0 
        296      0.0001    0.000193    0.000539        1000           0           0           0 
        297      0.0001    0.000298    0.000834        1000           0           0           0 
        298      0.0013     0.00016    0.000447        1000           0           0           0 
        299      0.0007    0.000101    0.000283        1000           0           0           0 
        300      0.0001    0.000144    0.000402        1000           0           0           0 
        301      0.0016    0.000155    0.000432        1000           0           0           0 
        302      0.0001    0.000118     0.00033        1000           0           0           0 
        303      0.0001    0.000223    0.000624        1000           0           0           0 