# Name File for MODFLOW created on 5/17/2021 by ModelMuse Version 4.3.0.0
LIST             11 simple1.lst REPLACE
DATA(BINARY)      9 simple1.cbc REPLACE
DIS              12 simple1.dis OLD
BAS6             13 simple1.bas OLD
OC               39 simple1.oc OLD
DATA             37 simple1.fhd REPLACE
DATA             38 simple1.fdn REPLACE
PCG              18 simple1.pcg OLD
LPF              14 simple1.lpf OLD
FHB             146 simple1.fhb OLD
RCH              24 simple1.rch OLD
