# RCH package for  MODFLOW-2005, generated by Flopy.
         1         9
         1        -1 # Stress period 1
INTERNAL               1  (10E15.6) -1 #rech_1                        
  -2.749700E+00  -2.749700E+00  -2.749700E+00  -2.749700E+00  -2.749700E+00  -2.749700E+00  -2.749700E+00  -2.749700E+00  -2.749700E+00  -2.749700E+00
  -2.749700E+00  -2.749700E+00  -2.749700E+00  -2.749700E+00  -2.749700E+00  -2.749700E+00  -2.749700E+00  -2.749700E+00  -2.749700E+00  -2.749700E+00
  -2.749700E+00  -2.749700E+00  -2.749700E+00  -2.749700E+00  -2.749700E+00  -2.749700E+00  -2.749700E+00  -2.749700E+00  -2.749700E+00  -2.749700E+00
  -2.749700E+00  -2.749700E+00  -2.749700E+00  -2.749700E+00  -2.749700E+00  -2.749700E+00  -2.749700E+00  -2.749700E+00  -2.749700E+00  -2.749700E+00
  -2.749700E+00  -2.749700E+00  -2.749700E+00  -2.749700E+00  -2.749700E+00  -2.749700E+00  -2.749700E+00  -2.749700E+00  -2.749700E+00  -2.749700E+00
  -2.749700E+00  -2.749700E+00  -2.749700E+00  -2.749700E+00  -2.749700E+00  -2.749700E+00  -2.749700E+00  -2.749700E+00  -2.749700E+00  -2.749700E+00
  -2.749700E+00  -2.749700E+00  -2.749700E+00  -2.749700E+00  -2.749700E+00  -2.749700E+00  -2.749700E+00  -2.749700E+00  -2.749700E+00  -2.749700E+00
  -2.749700E+00  -2.749700E+00  -2.749700E+00  -2.749700E+00  -2.749700E+00  -2.749700E+00  -2.749700E+00  -2.749700E+00  -2.749700E+00  -2.749700E+00
  -2.749700E+00  -2.749700E+00  -2.749700E+00  -2.749700E+00  -2.749700E+00  -2.749700E+00  -2.749700E+00  -2.749700E+00  -2.749700E+00  -2.749700E+00
  -2.749700E+00  -2.749700E+00  -2.749700E+00  -2.749700E+00  -2.749700E+00  -2.749700E+00  -2.749700E+00  -2.749700E+00  -2.749700E+00  -2.749700E+00
         1        -1 # Stress period 2
INTERNAL               1     (FREE) -1 #rech_2                        
   1.000000E-03   1.000000E-03   1.000000E-03   1.000000E-03   1.000000E-03   1.000000E-03   1.000000E-03   1.000000E-03   1.000000E-03   1.000000E-03
   1.000000E-03   1.000000E-03   1.000000E-03   1.000000E-03   1.000000E-03   1.000000E-03   1.000000E-03   1.000000E-03   1.000000E-03   1.000000E-03
   1.000000E-03   1.000000E-03   1.000000E-03   1.200000E-03   1.200000E-03   1.200000E-03   1.000000E-03   1.000000E-03   1.000000E-03   1.000000E-03
   1.000000E-03   1.000000E-03   1.000000E-03   1.200000E-03   1.200000E-03   1.200000E-03   1.000000E-03   1.000000E-03   1.000000E-03   1.000000E-03
   1.000000E-03   1.000000E-03   1.000000E-03   1.200000E-03   1.200000E-03   1.200000E-03   1.000000E-03   1.000000E-03   1.000000E-03   1.000000E-03
   1.000000E-03   1.000000E-03   1.000000E-03   1.000000E-03   1.000000E-03   1.000000E-03   1.000000E-03   1.000000E-03   1.000000E-03   1.000000E-03
   1.000000E-03   1.000000E-03   1.000000E-03   1.000000E-03   1.000000E-03   1.000000E-03   1.000000E-03   1.000000E-03   1.000000E-03   1.000000E-03
   1.000000E-03   1.000000E-03   1.000000E-03   1.000000E-03   1.000000E-03   1.000000E-03   1.000000E-03   1.000000E-03   1.000000E-03   1.000000E-03
   1.000000E-03   1.000000E-03   1.000000E-03   1.000000E-03   1.000000E-03   1.000000E-03   1.000000E-03   1.000000E-03   1.000000E-03   1.000000E-03
   1.000000E-03   1.000000E-03   1.000000E-03   1.000000E-03   1.000000E-03   1.000000E-03   1.000000E-03   1.000000E-03   1.000000E-03   1.000000E-03
         1        -1 # Stress period 3
INTERNAL               1     (FREE) -1 #rech_3                        
   2.000000E-04   2.000000E-04   2.000000E-04   2.000000E-04   2.000000E-04   2.000000E-04   2.000000E-04   2.000000E-04   2.000000E-04   2.000000E-04
   2.000000E-04   2.000000E-04   2.000000E-04   2.000000E-04   2.000000E-04   2.000000E-04   2.000000E-04   2.000000E-04   2.000000E-04   2.000000E-04
   2.000000E-04   2.000000E-04   2.000000E-04   1.200000E-03   1.200000E-03   1.200000E-03   2.000000E-04   2.000000E-04   2.000000E-04   2.000000E-04
   2.000000E-04   2.000000E-04   2.000000E-04   1.200000E-03   1.200000E-03   1.200000E-03   2.000000E-04   2.000000E-04   2.000000E-04   2.000000E-04
   2.000000E-04   2.000000E-04   2.000000E-04   1.200000E-03   1.200000E-03   1.200000E-03   2.000000E-04   2.000000E-04   2.000000E-04   2.000000E-04
   2.000000E-04   2.000000E-04   2.000000E-04   2.000000E-04   2.000000E-04   2.000000E-04   2.000000E-04   2.000000E-04   2.000000E-04   2.000000E-04
   2.000000E-04   2.000000E-04   2.000000E-04   2.000000E-04   2.000000E-04   2.000000E-04   2.000000E-04   2.000000E-04   2.000000E-04   2.000000E-04
   2.000000E-04   2.000000E-04   2.000000E-04   2.000000E-04   2.000000E-04   2.000000E-04   2.000000E-04   2.000000E-04   2.000000E-04   2.000000E-04
   2.000000E-04   2.000000E-04   2.000000E-04   2.000000E-04   2.000000E-04   2.000000E-04   2.000000E-04   2.000000E-04   2.000000E-04   2.000000E-04
   2.000000E-04   2.000000E-04   2.000000E-04   2.000000E-04   2.000000E-04   2.000000E-04   2.000000E-04   2.000000E-04   2.000000E-04   2.000000E-04
         1        -1 # Stress period 4
INTERNAL               1     (FREE) -1 #rech_4                        
   3.000000E-04   3.000000E-04   3.000000E-04   3.000000E-04   3.000000E-04   3.000000E-04   3.000000E-04   3.000000E-04   3.000000E-04   3.000000E-04
   3.000000E-04   3.000000E-04   3.000000E-04   3.000000E-04   3.000000E-04   3.000000E-04   3.000000E-04   3.000000E-04   3.000000E-04   3.000000E-04
   3.000000E-04   3.000000E-04   3.000000E-04   1.200000E-03   1.200000E-03   1.200000E-03   3.000000E-04   3.000000E-04   3.000000E-04   3.000000E-04
   3.000000E-04   3.000000E-04   3.000000E-04   1.200000E-03   1.200000E-03   1.200000E-03   3.000000E-04   3.000000E-04   3.000000E-04   3.000000E-04
   3.000000E-04   3.000000E-04   3.000000E-04   1.200000E-03   1.200000E-03   1.200000E-03   3.000000E-04   3.000000E-04   3.000000E-04   3.000000E-04
   3.000000E-04   3.000000E-04   3.000000E-04   3.000000E-04   3.000000E-04   3.000000E-04   3.000000E-04   3.000000E-04   3.000000E-04   3.000000E-04
   3.000000E-04   3.000000E-04   3.000000E-04   3.000000E-04   3.000000E-04   3.000000E-04   3.000000E-04   3.000000E-04   3.000000E-04   3.000000E-04
   3.000000E-04   3.000000E-04   3.000000E-04   3.000000E-04   3.000000E-04   3.000000E-04   3.000000E-04   3.000000E-04   3.000000E-04   3.000000E-04
   3.000000E-04   3.000000E-04   3.000000E-04   3.000000E-04   3.000000E-04   3.000000E-04   3.000000E-04   3.000000E-04   3.000000E-04   3.000000E-04
   3.000000E-04   3.000000E-04   3.000000E-04   3.000000E-04   3.000000E-04   3.000000E-04   3.000000E-04   3.000000E-04   3.000000E-04   3.000000E-04
